/*--------------------------------*- C++ -*----------------------------------*\
  =========                 |
  \\      /  F ield         | OpenFOAM: The Open Source CFD Toolbox
   \\    /   O peration     | Website:  https://openfoam.org
    \\  /    A nd           | Version:  10
     \\/     M anipulation  |
\*---------------------------------------------------------------------------*/
FoamFile
{
    format      ascii;
    class       polyBoundaryMesh;
    location    "constant/polyMesh";
    object      boundary;
}
// * * * * * * * * * * * * * * * * * * * * * * * * * * * * * * * * * * * * * //

6
(
    right
    {
        type            cyclic;
        inGroups        List<word> 1(cyclic);
        nFaces          20;
        startFace       788;
        matchTolerance  0.0001;
        neighbourPatch  left;
        transformType   rotational;
        rotationAxis    (0 0 1);
        rotationCentre  (0 0 0);
        rotationAngle   -90;
    }
    left
    {
        type            cyclic;
        inGroups        List<word> 1(cyclic);
        nFaces          20;
        startFace       808;
        matchTolerance  0.0001;
        neighbourPatch  right;
        transformType   rotational;
        rotationAxis    (0 0 1);
        rotationCentre  (0 0 0);
        rotationAngle   90;
    }
    outerWall
    {
        type            wall;
        inGroups        List<word> 1(wall);
        nFaces          22;
        startFace       828;
    }
    stirrerWall
    {
        type            wall;
        inGroups        List<word> 1(wall);
        nFaces          42;
        startFace       850;
    }
    top
    {
        type            empty;
        inGroups        List<word> 1(empty);
        nFaces          420;
        startFace       892;
    }
    bottom
    {
        type            empty;
        inGroups        List<word> 1(empty);
        nFaces          420;
        startFace       1312;
    }
)

// ************************************************************************* //
