/*--------------------------------*- C++ -*----------------------------------*\
  =========                 |
  \\      /  F ield         | OpenFOAM: The Open Source CFD Toolbox
   \\    /   O peration     | Website:  https://openfoam.org
    \\  /    A nd           | Version:  10
     \\/     M anipulation  |
\*---------------------------------------------------------------------------*/
FoamFile
{
    format      ascii;
    class       polyBoundaryMesh;
    location    "constant/polyMesh";
    object      boundary;
}
// * * * * * * * * * * * * * * * * * * * * * * * * * * * * * * * * * * * * * //

6
(
    right
    {
        type            cyclic;
        inGroups        List<word> 1(cyclic);
        nFaces          100;
        startFace       26120;
        matchTolerance  0.0001;
        neighbourPatch  left;
        transformType   rotational;
        rotationAxis    (0 0 1);
        rotationCentre  (0 0 0);
        rotationAngle   -90;
    }
    left
    {
        type            cyclic;
        inGroups        List<word> 1(cyclic);
        nFaces          100;
        startFace       26220;
        matchTolerance  0.0001;
        neighbourPatch  right;
        transformType   rotational;
        rotationAxis    (0 0 1);
        rotationCentre  (0 0 0);
        rotationAngle   90;
    }
    outerWall
    {
        type            wall;
        inGroups        List<word> 1(wall);
        nFaces          140;
        startFace       26320;
    }
    stirrerWall
    {
        type            wall;
        inGroups        List<word> 1(wall);
        nFaces          220;
        startFace       26460;
    }
    top
    {
        type            empty;
        inGroups        List<word> 1(empty);
        nFaces          13200;
        startFace       26680;
    }
    bottom
    {
        type            empty;
        inGroups        List<word> 1(empty);
        nFaces          13200;
        startFace       39880;
    }
)

// ************************************************************************* //
