/*--------------------------------*- C++ -*----------------------------------*\
  =========                 |
  \\      /  F ield         | OpenFOAM: The Open Source CFD Toolbox
   \\    /   O peration     | Website:  https://openfoam.org
    \\  /    A nd           | Version:  10
     \\/     M anipulation  |
\*---------------------------------------------------------------------------*/
FoamFile
{
    format      ascii;
    class       dictionary;
    location    "system";
    object      controlDict;
}
// * * * * * * * * * * * * * * * * * * * * * * * * * * * * * * * * * * * * * //

application     SRFSimpleFoam;

startFrom       startTime;

startTime       10000;

stopAt          endTime;

endTime         30000;

deltaT          1;

writeControl    timeStep;

writeInterval   1000;

purgeWrite      0;

writeFormat     ascii;

writePrecision  6;

writeCompression off;

timeFormat      general;

timePrecision   6;

runTimeModifiable true;

functions
{
	#includeFunc residuals
	#includeFunc CourantNo
	#includeFunc yPlus
    probes
    {
        type            probes;
        functionObjectLibs ("libsampling.so");  // Library required for probes
        writeControl    timeStep;               // Determines when to record data
        writeInterval   1;                      // Frequency of data recording (every timestep in this example)

        // Fields to probe
        fields
        (
            p       // Pressure
            U       // Velocity
        );

        // Locations for the probes
        probeLocations
        (
            (14 15 1)   // Replace with your desired coordinates

        );
    }
}


// ************************************************************************* //
