/*--------------------------------*- C++ -*----------------------------------*\
  =========                 |
  \\      /  F ield         | OpenFOAM: The Open Source CFD Toolbox
   \\    /   O peration     | Website:  https://openfoam.org
    \\  /    A nd           | Version:  10
     \\/     M anipulation  |
\*---------------------------------------------------------------------------*/
FoamFile
{
    format      ascii;
    class       dictionary;
    location    "system";
    object      fvSchemes;
}
// * * * * * * * * * * * * * * * * * * * * * * * * * * * * * * * * * * * * * //

ddtSchemes
{
    default         steadyState;
}

gradSchemes
{
    default         Gauss linear;
    default         cellLimited Gauss linear 1; //2nd order accurate discretization
}

divSchemes
{
    default         none;
    div(phi,Urel)   bounded Gauss linearUpwindV limited 1;  //2nd order accurate discretization
    div(phi,k)      bounded Gauss linearUpwind limited 1; //1st order accurate discretization
    div(phi,epsilon) bounded Gauss linearUpwind limited 1;
    div(phi,omega)   bounded Gauss linearUpwind limited 1;
    div(phi,R)     bounded Gauss linearUpwind limited 1;
    div(R)         bounded Gauss linearUpwind limited 1;
    div(phi,nuTilda) bounded Gauss linearUpwind limited 1;
    div((nuEff*dev2(T(grad(Urel))))) Gauss linear;
}

laplacianSchemes
{
    default         Gauss linear corrected;
}

interpolationSchemes
{
    default         linear;
}

snGradSchemes
{
    default         corrected;
}

wallDist
{
    method meshWave;
}


// ************************************************************************* //
