/*--------------------------------*- C++ -*----------------------------------*\
  =========                 |
  \\      /  F ield         | OpenFOAM: The Open Source CFD Toolbox
   \\    /   O peration     | Website:  https://openfoam.org
    \\  /    A nd           | Version:  10
     \\/     M anipulation  |
\*---------------------------------------------------------------------------*/
FoamFile
{
    format      ascii;
    class       volScalarField;
    location    "0";
    object      omega;
}
// * * * * * * * * * * * * * * * * * * * * * * * * * * * * * * * * * * * * * //

dimensions      [0 0 -1 0 0 0 0];

internalField   uniform 3.5;

boundaryField
{
    top
    {
        type            empty;

    }
    outlet
    {
        type            empty;
    }
    stirrerWall
    {
        type            omegaWallFunction;
        value           uniform 3.5;
    }
    outerWall
    {
        type            omegaWallFunction;
        value           uniform 3.5;
    }
    right
    {
        type            cyclic;
        value           uniform 3.5;
    }
    left
    {
        type            cyclic;
        value           uniform 3.5;
    }
}


// ************************************************************************* //
